instances/data_GOC/Phase_0_RTS96/scenario_36/powersystem.raw
 0,  100.000000
rts96_spring_wday.raw / File written by to_psse.gms
5 / 19 / 2015
101, ' 101 ',138,2,1,1,1,1.00,0.00,1.1,0.9,1.1,0.9
102, ' 102 ',138,2,1,1,1,1.00,0.00,1.1,0.9,1.1,0.9
103, ' 103 ',138,1,1,1,1,1.00,0.00,1.1,0.9,1.1,0.9
104, ' 104 ',138,1,1,1,1,1.00,0.00,1.1,0.9,1.1,0.9
105, ' 105 ',138,1,1,1,1,1.00,0.00,1.1,0.9,1.1,0.9
106, ' 106 ',138,1,1,1,1,1.00,0.00,1.1,0.9,1.1,0.9
107, ' 107 ',138,2,1,1,1,1.00,0.00,1.1,0.9,1.1,0.9
108, ' 108 ',138,1,1,1,1,1.00,0.00,1.1,0.9,1.1,0.9
109, ' 109 ',138,1,1,1,1,1.00,0.00,1.1,0.9,1.1,0.9
110, ' 110 ',138,1,1,1,1,1.00,0.00,1.1,0.9,1.1,0.9
111, ' 111 ',230,1,1,1,1,1.00,0.00,1.1,0.9,1.1,0.9
112, ' 112 ',230,1,1,1,1,1.00,0.00,1.1,0.9,1.1,0.9
113, ' 113 ',230,3,1,1,1,1.00,0.00,1.1,0.9,1.1,0.9
114, ' 114 ',230,2,1,1,1,1.00,0.00,1.1,0.9,1.1,0.9
115, ' 115 ',230,2,1,1,1,1.00,0.00,1.1,0.9,1.1,0.9
116, ' 116 ',230,2,1,1,1,1.00,0.00,1.1,0.9,1.1,0.9
117, ' 117 ',230,1,1,1,1,1.00,0.00,1.1,0.9,1.1,0.9
118, ' 118 ',230,2,1,1,1,1.00,0.00,1.1,0.9,1.1,0.9
119, ' 119 ',230,1,1,1,1,1.00,0.00,1.1,0.9,1.1,0.9
120, ' 120 ',230,1,1,1,1,1.00,0.00,1.1,0.9,1.1,0.9
121, ' 121 ',230,2,1,1,1,1.00,0.00,1.1,0.9,1.1,0.9
122, ' 122 ',230,2,1,1,1,1.00,0.00,1.1,0.9,1.1,0.9
123, ' 123 ',230,2,1,1,1,1.00,0.00,1.1,0.9,1.1,0.9
124, ' 124 ',230,1,1,1,1,1.00,0.00,1.1,0.9,1.1,0.9
201, ' 201 ',138,2,1,1,1,1.00,0.00,1.1,0.9,1.1,0.9
202, ' 202 ',138,2,1,1,1,1.00,0.00,1.1,0.9,1.1,0.9
203, ' 203 ',138,1,1,1,1,1.00,0.00,1.1,0.9,1.1,0.9
204, ' 204 ',138,1,1,1,1,1.00,0.00,1.1,0.9,1.1,0.9
205, ' 205 ',138,1,1,1,1,1.00,0.00,1.1,0.9,1.1,0.9
206, ' 206 ',138,1,1,1,1,1.00,0.00,1.1,0.9,1.1,0.9
207, ' 207 ',138,2,1,1,1,1.00,0.00,1.1,0.9,1.1,0.9
208, ' 208 ',138,1,1,1,1,1.00,0.00,1.1,0.9,1.1,0.9
209, ' 209 ',138,1,1,1,1,1.00,0.00,1.1,0.9,1.1,0.9
210, ' 210 ',138,1,1,1,1,1.00,0.00,1.1,0.9,1.1,0.9
211, ' 211 ',230,1,1,1,1,1.00,0.00,1.1,0.9,1.1,0.9
212, ' 212 ',230,1,1,1,1,1.00,0.00,1.1,0.9,1.1,0.9
213, ' 213 ',230,2,1,1,1,1.00,0.00,1.1,0.9,1.1,0.9
214, ' 214 ',230,2,1,1,1,1.00,0.00,1.1,0.9,1.1,0.9
215, ' 215 ',230,2,1,1,1,1.00,0.00,1.1,0.9,1.1,0.9
216, ' 216 ',230,2,1,1,1,1.00,0.00,1.1,0.9,1.1,0.9
217, ' 217 ',230,1,1,1,1,1.00,0.00,1.1,0.9,1.1,0.9
218, ' 218 ',230,2,1,1,1,1.00,0.00,1.1,0.9,1.1,0.9
219, ' 219 ',230,1,1,1,1,1.00,0.00,1.1,0.9,1.1,0.9
220, ' 220 ',230,1,1,1,1,1.00,0.00,1.1,0.9,1.1,0.9
221, ' 221 ',230,2,1,1,1,1.00,0.00,1.1,0.9,1.1,0.9
222, ' 222 ',230,2,1,1,1,1.00,0.00,1.1,0.9,1.1,0.9
223, ' 223 ',230,2,1,1,1,1.00,0.00,1.1,0.9,1.1,0.9
224, ' 224 ',230,1,1,1,1,1.00,0.00,1.1,0.9,1.1,0.9
301, ' 301 ',138,2,1,1,1,1.00,0.00,1.1,0.9,1.1,0.9
302, ' 302 ',138,2,1,1,1,1.00,0.00,1.1,0.9,1.1,0.9
303, ' 303 ',138,1,1,1,1,1.00,0.00,1.1,0.9,1.1,0.9
304, ' 304 ',138,1,1,1,1,1.00,0.00,1.1,0.9,1.1,0.9
305, ' 305 ',138,1,1,1,1,1.00,0.00,1.1,0.9,1.1,0.9
306, ' 306 ',138,1,1,1,1,1.00,0.00,1.1,0.9,1.1,0.9
307, ' 307 ',138,2,1,1,1,1.00,0.00,1.1,0.9,1.1,0.9
308, ' 308 ',138,1,1,1,1,1.00,0.00,1.1,0.9,1.1,0.9
309, ' 309 ',138,1,1,1,1,1.00,0.00,1.1,0.9,1.1,0.9
310, ' 310 ',138,1,1,1,1,1.00,0.00,1.1,0.9,1.1,0.9
311, ' 311 ',230,1,1,1,1,1.00,0.00,1.1,0.9,1.1,0.9
312, ' 312 ',230,1,1,1,1,1.00,0.00,1.1,0.9,1.1,0.9
313, ' 313 ',230,2,1,1,1,1.00,0.00,1.1,0.9,1.1,0.9
314, ' 314 ',230,2,1,1,1,1.00,0.00,1.1,0.9,1.1,0.9
315, ' 315 ',230,2,1,1,1,1.00,0.00,1.1,0.9,1.1,0.9
316, ' 316 ',230,2,1,1,1,1.00,0.00,1.1,0.9,1.1,0.9
317, ' 317 ',230,1,1,1,1,1.00,0.00,1.1,0.9,1.1,0.9
318, ' 318 ',230,2,1,1,1,1.00,0.00,1.1,0.9,1.1,0.9
319, ' 319 ',230,1,1,1,1,1.00,0.00,1.1,0.9,1.1,0.9
320, ' 320 ',230,1,1,1,1,1.00,0.00,1.1,0.9,1.1,0.9
321, ' 321 ',230,2,1,1,1,1.00,0.00,1.1,0.9,1.1,0.9
322, ' 322 ',230,2,1,1,1,1.00,0.00,1.1,0.9,1.1,0.9
323, ' 323 ',230,2,1,1,1,1.00,0.00,1.1,0.9,1.1,0.9
324, ' 324 ',230,1,1,1,1,1.00,0.00,1.1,0.9,1.1,0.9
325, ' 325 ',230,1,1,1,1,1.00,0.00,1.1,0.9,1.1,0.9
0 / END OF BUS DATA, BEGIN LOAD DATA
101, '1 ',1,11,11,80.73370173898414,19.79549353634063,0.0,0.0,0.0,0.0,1,1,0
102, '1 ',1,11,12,48.633477408429286,14.67668772896379,0.0,0.0,0.0,0.0,1,1,0
103, '1 ',1,11,11,130.15886148877254,32.153651036717974,0.0,0.0,0.0,0.0,1,1,0
104, '1 ',1,11,11,63.22801498470186,9.019009425669209,0.0,0.0,0.0,0.0,1,1,0
105, '1 ',1,11,11,50.873456647680655,10.94809785492802,0.0,0.0,0.0,0.0,1,1,0
106, '1 ',1,11,12,71.37937797175795,16.027702069542556,0.0,0.0,0.0,0.0,1,1,0
107, '1 ',1,11,12,93.99259674442,13.947514022989198,0.0,0.0,0.0,0.0,1,1,0
108, '1 ',1,11,12,116.17826833916538,24.48816350013879,0.0,0.0,0.0,0.0,1,1,0
109, '1 ',1,11,13,127.90604024960545,19.405147570785505,0.0,0.0,0.0,0.0,1,1,0
110, '1 ',1,11,13,103.92858560787349,29.53689732897095,0.0,0.0,0.0,0.0,1,1,0
111, '1 ',1,11,13,0.0,0.0,0.0,0.0,0.0,0.0,1,1,0
112, '1 ',1,11,13,0.0,0.0,0.0,0.0,0.0,0.0,1,1,0
113, '1 ',1,12,14,223.3926096950029,47.803837921841904,0.0,0.0,0.0,0.0,1,1,0
114, '1 ',1,12,16,162.4772733725558,30.0270911726268,0.0,0.0,0.0,0.0,1,1,0
115, '1 ',1,12,16,275.76583251114107,31.11119644813835,0.0,0.0,0.0,0.0,1,1,0
116, '1 ',1,12,16,83.56818707199767,11.115734404854475,0.0,0.0,0.0,0.0,1,1,0
117, '1 ',1,12,17,0.0,0.0,0.0,0.0,0.0,0.0,1,1,0
118, '1 ',1,12,17,253.31304690441652,57.38068960011229,0.0,0.0,0.0,0.0,1,1,0
119, '1 ',1,12,15,101.24762751819854,27.326223665843482,0.0,0.0,0.0,0.0,1,1,0
120, '1 ',1,12,15,70.78162397882937,20.162982063767966,0.0,0.0,0.0,0.0,1,1,0
121, '1 ',1,12,17,0.0,0.0,0.0,0.0,0.0,0.0,1,1,0
122, '1 ',1,12,17,0.0,0.0,0.0,0.0,0.0,0.0,1,1,0
123, '1 ',1,12,15,0.0,0.0,0.0,0.0,0.0,0.0,1,1,0
124, '1 ',1,12,16,0.0,0.0,0.0,0.0,0.0,0.0,1,1,0
201, '1 ',1,21,21,94.12073061117007,12.697376775353774,0.0,0.0,0.0,0.0,1,1,0
202, '1 ',1,21,22,80.10067678602684,17.620263323659074,0.0,0.0,0.0,0.0,1,1,0
203, '1 ',1,21,21,116.76019364294875,21.167976201927427,0.0,0.0,0.0,0.0,1,1,0
204, '1 ',1,21,21,51.17462736895177,13.051388120335293,0.0,0.0,0.0,0.0,1,1,0
205, '1 ',1,21,21,45.621531616735695,7.532983947274088,0.0,0.0,0.0,0.0,1,1,0
206, '1 ',1,21,22,68.81206573330387,23.684449451709913,0.0,0.0,0.0,0.0,1,1,0
207, '1 ',1,21,22,87.23777033602819,16.35433426001924,0.0,0.0,0.0,0.0,1,1,0
208, '1 ',1,21,22,127.92446124001626,27.554428878934583,0.0,0.0,0.0,0.0,1,1,0
209, '1 ',1,21,23,108.55061653887272,25.119005542463064,0.0,0.0,0.0,0.0,1,1,0
210, '1 ',1,21,23,147.50200693692918,27.22565293438174,0.0,0.0,0.0,0.0,1,1,0
211, '1 ',1,21,23,0.0,0.0,0.0,0.0,0.0,0.0,1,1,0
212, '1 ',1,21,23,0.0,0.0,0.0,0.0,0.0,0.0,1,1,0
213, '1 ',1,22,24,134.76311686830456,33.95949148805346,0.0,0.0,0.0,0.0,1,1,0
214, '1 ',1,22,26,168.8893830187035,22.94906443157075,0.0,0.0,0.0,0.0,1,1,0
215, '1 ',1,22,26,154.00928674600502,50.676679236996165,0.0,0.0,0.0,0.0,1,1,0
216, '1 ',1,22,26,55.13691831633914,17.919607179206796,0.0,0.0,0.0,0.0,1,1,0
217, '1 ',1,22,27,0.0,0.0,0.0,0.0,0.0,0.0,1,1,0
218, '1 ',1,22,27,268.24127225505526,54.94759371497333,0.0,0.0,0.0,0.0,1,1,0
219, '1 ',1,22,25,161.06124331409706,33.32299173444933,0.0,0.0,0.0,0.0,1,1,0
220, '1 ',1,22,25,83.763774170655,19.32319560227506,0.0,0.0,0.0,0.0,1,1,0
221, '1 ',1,22,27,0.0,0.0,0.0,0.0,0.0,0.0,1,1,0
222, '1 ',1,22,27,0.0,0.0,0.0,0.0,0.0,0.0,1,1,0
223, '1 ',1,22,25,0.0,0.0,0.0,0.0,0.0,0.0,1,1,0
224, '1 ',1,22,26,0.0,0.0,0.0,0.0,0.0,0.0,1,1,0
301, '1 ',1,31,31,76.46938829520028,11.663624126180448,0.0,0.0,0.0,0.0,1,1,0
302, '1 ',1,31,32,79.65456301779086,17.596384912465698,0.0,0.0,0.0,0.0,1,1,0
303, '1 ',1,31,31,136.90252799383083,19.40026506650294,0.0,0.0,0.0,0.0,1,1,0
304, '1 ',1,31,31,53.320263375410896,8.296546257273294,0.0,0.0,0.0,0.0,1,1,0
305, '1 ',1,31,31,45.119954828119745,8.063839339248183,0.0,0.0,0.0,0.0,1,1,0
306, '1 ',1,31,32,108.86475310379753,18.215784200521743,0.0,0.0,0.0,0.0,1,1,0
307, '1 ',1,31,32,75.23158880870905,17.922490218307356,0.0,0.0,0.0,0.0,1,1,0
308, '1 ',1,31,32,106.01752844236717,23.650907597546233,0.0,0.0,0.0,0.0,1,1,0
309, '1 ',1,31,33,120.87011036489625,32.3956586664565,0.0,0.0,0.0,0.0,1,1,0
310, '1 ',1,31,33,137.11328570898576,26.18180636139773,0.0,0.0,0.0,0.0,1,1,0
311, '1 ',1,31,33,0.0,0.0,0.0,0.0,0.0,0.0,1,1,0
312, '1 ',1,31,33,0.0,0.0,0.0,0.0,0.0,0.0,1,1,0
313, '1 ',1,32,34,140.60094500546506,31.53984074825076,0.0,0.0,0.0,0.0,1,1,0
314, '1 ',1,32,36,168.67531508592702,23.967329133661185,0.0,0.0,0.0,0.0,1,1,0
315, '1 ',1,32,36,283.20986381223435,43.970638550359006,0.0,0.0,0.0,0.0,1,1,0
316, '1 ',1,32,36,69.6932991920365,13.918756360265425,0.0,0.0,0.0,0.0,1,1,0
317, '1 ',1,32,37,0.0,0.0,0.0,0.0,0.0,0.0,1,1,0
318, '1 ',1,32,37,256.25588251720967,46.98629979934227,0.0,0.0,0.0,0.0,1,1,0
319, '1 ',1,32,35,127.23131547640041,29.499796792704934,0.0,0.0,0.0,0.0,1,1,0
320, '1 ',1,32,35,68.20431205043792,16.434819096149784,0.0,0.0,0.0,0.0,1,1,0
321, '1 ',1,32,37,0.0,0.0,0.0,0.0,0.0,0.0,1,1,0
322, '1 ',1,32,37,0.0,0.0,0.0,0.0,0.0,0.0,1,1,0
323, '1 ',1,32,35,0.0,0.0,0.0,0.0,0.0,0.0,1,1,0
324, '1 ',1,32,36,0.0,0.0,0.0,0.0,0.0,0.0,1,1,0
325, '1 ',1,32,35,0.0,0.0,0.0,0.0,0.0,0.0,1,1,0
0 / END OF LOAD DATA, BEGIN FIXED SHUNT DATA
0 / END OF FIXED SHUNT DATA, BEGIN GENERATOR DATA
101,1,10,0,10.484698487445712,0.319583298638463,1.035,0,24,0,1,0,0,1,1,100,16.274303515441716,11.099221180370078,1,1,0,1
101,2,10,0,11.693682185839862,0.036571136210113764,1.035,0,24,0,1,0,0,1,1,100,18.712858632206917,14.310516653880477,1,1,0,1
101,3,76,14.1,34.62166187027469,-24.961817843141034,1.035,0,89,0,1,0,0,1,1,100,71.41313891746104,0.19723695972652747,1,1,0,1
101,4,76,14.1,35.067366214469075,-23.562469709664583,1.035,0,89,0,1,0,0,1,1,100,77.63099616579711,23.142178262993696,1,1,0,1
102,5,10,0,11.955631723627448,1.392594053875655,1.035,0,24,0,1,0,0,1,1,100,22.29965849313885,16.839797452101486,1,1,0,1
102,6,10,0,12.02015146939084,3.855997013859451,1.035,0,24,0,1,0,0,1,1,100,24.292893367819488,20.86162974323146,1,1,0,1
102,7,76,7,27.213959245942533,-13.573641614755608,1.035,0,89,0,1,0,0,1,1,100,72.49527137186378,15.31969608782158,1,1,0,1
102,8,76,7,27.952472947072238,-33.061894895741716,1.035,0,89,0,1,0,0,1,1,100,62.82974515147507,15.14078721337021,1,1,0,1
107,9,80,17.2,71.45213489234447,22.44046829547733,1.025,0,118,0,1,0,0,1,1,100,80.10224616155028,40.51437309755886,1,1,0,1
107,10,80,17.2,56.873256356455386,-20.46689515560867,1.025,0,118,0,1,0,0,1,1,100,123.40211586561054,48.630961215822026,1,1,0,1
107,11,80,17.2,71.95730471145362,6.921579125337303,1.025,0,118,0,1,0,0,1,1,100,113.52806018665433,50.185058739734814,1,1,0,1
113,12,95.1,40.7,57.03833703324199,-32.86838974803686,1.02,0,232,0,1,0,0,1,1,100,165.78643541410565,11.994552903459407,1,1,0,1
113,13,95.1,40.7,86.52820331975818,24.83516736701131,1.02,0,232,0,1,0,0,1,1,100,183.3892312271986,56.73175604700107,1,1,0,1
113,14,95.1,40.7,77.53704822808504,-17.68642821907997,1.02,0,232,0,1,0,0,1,1,100,223.09519478441214,81.60469774085092,1,1,0,1
114,15,0,13.7,207.05680480226874,-45.38073038216683,0.98,0,100,0,1,0,0,1,1,100,0.0,0.0,1,1,0,1
115,16,12,0,6.8056527757085865,0.4757879435084771,1.014,0,14,0,1,0,0,1,1,100,10.172917713783683,3.20519464518875,1,1,0,1
115,17,12,0,6.3270276769995695,0.7732283346354967,1.014,0,14,0,1,0,0,1,1,100,14.457011641189455,3.038782798871397,1,1,0,1
115,18,12,0,7.068637864384801,2.5134766923263676,1.014,0,14,0,1,0,0,1,1,100,9.516052737459539,1.5589710856229066,1,1,0,1
115,19,12,0,4.433989620488137,-2.190388658177107,1.014,0,14,0,1,0,0,1,1,100,12.184721257165073,5.389511527642607,1,1,0,1
115,20,12,0,5.161162889935076,-2.2425052148289977,1.014,0,14,0,1,0,0,1,1,100,9.318870156817137,0.33532845195382777,1,1,0,1
115,21,155,0.05,103.94094646349551,8.587693998124465,1.014,0,182,0,1,0,0,1,1,100,129.37126844353043,22.664685927156825,1,1,0,1
116,22,155,25.22,92.05657462775707,-58.08775595249608,1.017,0,182,0,1,0,0,1,1,100,109.64573938422836,82.95107833725005,1,1,0,1
118,23,400,137.4,189.05068630352616,-130.95807549310848,1.05,0,471,0,1,0,0,1,1,100,506.54586372897035,159.5358925266192,1,1,0,1
121,24,400,108.2,235.16618364490566,-62.865945352241425,1.05,0,471,0,1,0,0,1,1,100,379.11357928067446,78.4111845958978,1,1,0,1
122,25,50,-4.96,14.865793196856975,-16.366240597981957,1.05,0,53,0,1,0,0,1,1,100,58.24276310391724,2.5138794793747365,1,1,0,1
122,26,50,-4.96,12.667644807696341,-12.003557399660348,1.05,0,53,0,1,0,0,1,1,100,43.28703674953431,22.975320890539255,1,1,0,1
122,27,50,-4.96,13.098169296979904,-20.61216241158545,1.05,0,53,0,1,0,0,1,1,100,43.34484962746501,40.934871695618526,1,1,0,1
122,28,50,-4.96,12.117693949490786,-12.96871890919283,1.05,0,53,0,1,0,0,1,1,100,48.40505505213514,10.789970364421613,1,1,0,1
122,29,50,-4.96,18.732454132288694,-9.634554255660625,1.05,0,53,0,1,0,0,1,1,100,39.13485953351483,33.72825806649887,1,1,0,1
122,30,50,-4.96,12.402113730460405,-19.76857077423483,1.05,0,53,0,1,0,0,1,1,100,36.91136623499915,25.159656605042755,1,1,0,1
123,31,155,31.79,89.56979193165898,-69.04381923796609,1.05,0,182,0,1,0,0,1,1,100,181.95795993041247,64.4746895359247,1,1,0,1
123,32,155,31.79,56.61574627459049,-85.02518705558032,1.05,0,182,0,1,0,0,1,1,100,138.90004551713355,9.002393817575665,1,1,0,1
123,33,350,71.78,155.60765849193558,7.028402406722307,1.05,0,412,0,1,0,0,1,1,100,301.86603352660313,70.1828678441234,1,1,0,1
201,34,10,0,8.094053231179714,-1.8238104209303856,1.035,0,24,0,1,0,0,1,1,100,14.147712868638337,8.930754982773216,1,1,0,1
201,35,10,0,7.9474655031226575,-0.17809415794909,1.035,0,24,0,1,0,0,1,1,100,24.48449658602476,20.81753679594025,1,1,0,1
201,36,76,14.1,21.486604779493064,-42.299026801483706,1.035,0,89,0,1,0,0,1,1,100,53.34301033318042,5.748203286528586,1,1,0,1
201,37,76,14.1,33.85552722495049,-9.215189458802335,1.035,0,89,0,1,0,0,1,1,100,88.83608114980161,37.00879488639534,1,1,0,1
202,38,10,0,7.580934635363519,-4.826327921357006,1.035,0,24,0,1,0,0,1,1,100,24.576836903579533,20.548929354855794,1,1,0,1
202,39,10,0,11.279632189776748,3.1993274898268282,1.035,0,24,0,1,0,0,1,1,100,20.38465452194214,16.438360248357057,1,1,0,1
202,40,76,7,26.26951437536627,-44.537433932302534,1.035,0,89,0,1,0,0,1,1,100,63.74503151997924,12.969070313870915,1,1,0,1
202,41,76,7,32.17172001907602,-26.788835963932797,1.035,0,89,0,1,0,0,1,1,100,57.936424859799445,48.084177159598255,1,1,0,1
207,42,80,17.2,75.9408549964428,32.03368745092303,1.025,0,118,0,1,0,0,1,1,100,90.50394106656313,22.504361651372164,1,1,0,1
207,43,80,17.2,72.98426014836878,11.317386964336038,1.025,0,118,0,1,0,0,1,1,100,113.45755304209888,33.76887363148853,1,1,0,1
207,44,80,17.2,58.642311989329755,-13.473288081586361,1.025,0,118,0,1,0,0,1,1,100,91.22134600766003,14.780741279246286,1,1,0,1
213,45,95.1,40.7,60.40211779996753,-30.71719889715314,1.02,0,232,0,1,0,0,1,1,100,184.75636284444482,34.69682765294331,1,1,0,1
213,46,95.1,40.7,79.8832097016275,-14.031996108591557,1.02,0,232,0,1,0,0,1,1,100,255.79051448712127,144.79021988634253,1,1,0,1
213,47,95.1,40.7,64.77008263021708,-18.349279571324587,1.02,0,232,0,1,0,0,1,1,100,209.27916273190638,89.7105542120733,1,1,0,1
214,48,0,13.68,218.1461971718818,24.367875908501446,0.98,0,100,0,1,0,0,1,1,100,0.0,0.0,1,1,0,1
215,49,12,0,4.468360087182372,-0.8049537098966546,1.014,0,14,0,1,0,0,1,1,100,11.65150231271982,7.208063517225583,1,1,0,1
215,50,12,0,6.522200436517597,-1.035405354201794,1.014,0,14,0,1,0,0,1,1,100,10.25880127698183,1.331006822884083,1,1,0,1
215,51,12,0,7.595045062433929,3.2461988956667494,1.014,0,14,0,1,0,0,1,1,100,13.42476779334247,2.49096187569201,1,1,0,1
215,52,12,0,6.407150420174002,-0.9615917776711287,1.014,0,14,0,1,0,0,1,1,100,15.57945090774447,6.084605317600074,1,1,0,1
215,53,12,0,5.934635333251208,1.698390352819115,1.014,0,14,0,1,0,0,1,1,100,12.819624886102973,0.5216926224902281,1,1,0,1
215,54,155,0.048,95.12138133496046,-33.423772145062685,1.014,0,182,0,1,0,0,1,1,100,125.02279258519411,2.948407518287755,1,1,0,1
216,55,155,25.22,92.2939381338656,-10.475418479647487,1.017,0,182,0,1,0,0,1,1,100,168.41067476687022,88.67663102605148,1,1,0,1
218,56,400,137.4,232.0296033099294,-14.358348860405357,1.05,0,471,0,1,0,0,1,1,100,296.7149299569428,292.3147034348807,1,1,0,1
221,57,400,108.2,165.38656576536596,-89.41856691148132,1.05,0,471,0,1,0,0,1,1,100,302.22810765728354,92.04589308705181,1,1,0,1
222,58,50,-4.96,19.014829090982676,-11.282377446908502,1.05,0,53,0,1,0,0,1,1,100,37.582321770023555,19.317820093090386,1,1,0,1
222,59,50,-4.96,15.00015927106142,-4.792244784999639,1.05,0,53,0,1,0,0,1,1,100,41.740410127677016,34.425964635212814,1,1,0,1
222,60,50,-4.96,18.466727448254822,-6.406290753558277,1.05,0,53,0,1,0,0,1,1,100,57.11728844093159,11.253910430241376,1,1,0,1
222,61,50,-4.96,13.45033677369356,-18.164509091526273,1.05,0,53,0,1,0,0,1,1,100,60.21805715747177,20.89995265239849,1,1,0,1
222,62,50,-4.96,15.248203290998935,-5.173022219352424,1.05,0,53,0,1,0,0,1,1,100,37.85415718564764,3.562921613989551,1,1,0,1
222,63,50,-4.96,19.29223087653518,-3.017372384853658,1.05,0,53,0,1,0,0,1,1,100,52.187085293699056,9.436442835722119,1,1,0,1
223,64,155,31.79,89.72847713902593,-39.33273773221299,1.05,0,182,0,1,0,0,1,1,100,144.94594804104418,59.806351881485895,1,1,0,1
223,65,155,31.79,65.79738852009177,-87.2088252035901,1.05,0,182,0,1,0,0,1,1,100,146.70227734930813,44.627498573134645,1,1,0,1
223,66,350,71.78,190.25128091219813,45.27422239771113,1.05,0,412,0,1,0,0,1,1,100,392.3257981822826,158.7764175334014,1,1,0,1
301,67,10,0,12.135659667663276,3.6086968048475683,1.035,0,24,0,1,0,0,1,1,100,18.68243547528982,15.450555059537292,1,1,0,1
301,68,10,0,10.617195705417544,-0.16353009548038244,1.035,0,24,0,1,0,0,1,1,100,25.33161167148501,22.283167925719177,1,1,0,1
301,69,76,14.1,34.15686347940937,-30.448975324863568,1.035,0,89,0,1,0,0,1,1,100,65.67176754325628,42.19762149544813,1,1,0,1
301,70,76,14.1,37.2957424884662,-6.958443382522084,1.035,0,89,0,1,0,0,1,1,100,56.13632857073098,7.3634567366912975,1,1,0,1
302,71,10,0,9.393044366501272,-2.219643371645361,1.035,0,24,0,1,0,0,1,1,100,15.134886348620055,11.513822449371217,1,1,0,1
302,72,10,0,12.540112355258316,3.002909210510552,1.035,0,24,0,1,0,0,1,1,100,22.315970894880593,18.52659233299084,1,1,0,1
302,73,76,7,27.28846879536286,-31.189241118263453,1.035,0,89,0,1,0,0,1,1,100,90.40093262642621,26.932510282993313,1,1,0,1
302,74,76,7,33.35286992741749,-34.01907347328961,1.035,0,89,0,1,0,0,1,1,100,95.59352307058872,25.63495547540488,1,1,0,1
307,75,80,17.2,69.3401260888204,-1.5920226713642478,1.025,0,118,0,1,0,0,1,1,100,129.43864764180034,61.63145485450514,1,1,0,1
307,76,80,17.2,59.00889646075666,2.487623577006161,1.025,0,118,0,1,0,0,1,1,100,99.15628280956298,33.6308759090025,1,1,0,1
307,77,80,17.2,71.92721304204315,16.341932030394673,1.025,0,118,0,1,0,0,1,1,100,118.08607478626072,31.28019309719093,1,1,0,1
313,78,95.1,40.7,96.13535122573376,-4.156804371625199,1.02,0,232,0,1,0,0,1,1,100,156.0531180678401,7.038383076142026,1,1,0,1
313,79,95.1,40.7,73.8285500369966,1.9903698787093163,1.02,0,232,0,1,0,0,1,1,100,228.19307388882154,98.29868932949611,1,1,0,1
313,80,95.1,40.7,69.23457261919975,4.975956950336695,1.02,0,232,0,1,0,0,1,1,100,152.85783860124647,46.74832220160168,1,1,0,1
314,81,0,13.68,187.40883816033602,-0.4394947597756982,0.98,0,100,0,1,0,0,1,1,100,0.0,0.0,1,1,0,1
315,82,12,0,7.498919176496565,0.815010888967663,1.014,0,14,0,1,0,0,1,1,100,11.46257045008242,1.6411001030355692,1,1,0,1
315,83,12,0,5.979671967029571,-0.8442904139868928,1.014,0,14,0,1,0,0,1,1,100,11.236012059822677,7.4979947516363525,1,1,0,1
315,84,12,0,5.8656407886184745,-1.2722883196547627,1.014,0,14,0,1,0,0,1,1,100,13.999991143494846,5.478635042756798,1,1,0,1
315,85,12,0,7.679517811350525,2.545009517669679,1.014,0,14,0,1,0,0,1,1,100,13.557599304802714,2.3679083216562855,1,1,0,1
315,86,12,0,4.603172938898205,-2.468514258507639,1.014,0,14,0,1,0,0,1,1,100,12.25871169269085,3.242318702191115,1,1,0,1
315,87,155,0.048,90.61948016285896,-32.34359141346067,1.014,0,182,0,1,0,0,1,1,100,140.22327035432681,27.89181454826611,1,1,0,1
316,88,155,25.22,82.1949801929295,-13.642161297146217,1.017,0,182,0,1,0,0,1,1,100,184.22830536519177,63.46335896068486,1,1,0,1
318,89,400,137.4,250.07916512899104,17.036578871775447,1.05,0,471,0,1,0,0,1,1,100,410.759564563632,162.99225533381104,1,1,0,1
321,90,400,108.2,150.91485952027142,-122.77935459977016,1.05,0,471,0,1,0,0,1,1,100,363.29457541927695,109.15141065139323,1,1,0,1
322,91,50,-4.96,13.937676748633384,-17.518606854137033,1.05,0,53,0,1,0,0,1,1,100,42.37600810592994,4.047473540910572,1,1,0,1
322,92,50,-4.96,20.797328589111565,-3.1864131916314378,1.05,0,53,0,1,0,0,1,1,100,41.57638217089698,3.6441536410711706,1,1,0,1
322,93,50,-4.96,18.403159123659133,-10.521246426459403,1.05,0,53,0,1,0,0,1,1,100,61.97676059789956,26.745074784848846,1,1,0,1
322,94,50,-4.96,20.307266826927663,-10.266461724974214,1.05,0,53,0,1,0,0,1,1,100,55.96596378600225,51.363593405738975,1,1,0,1
322,95,50,-4.96,14.067157847434283,-13.950241759326309,1.05,0,53,0,1,0,0,1,1,100,61.861141030676656,0.46305652940645814,1,1,0,1
322,96,50,-4.96,12.352348028868436,-18.419932075496767,1.05,0,53,0,1,0,0,1,1,100,62.974341108929366,40.3339565649664,1,1,0,1
323,97,155,31.79,79.15986483544111,-77.37961554247889,1.05,0,182,0,1,0,0,1,1,100,123.50805679219775,12.986661715537778,1,1,0,1
323,98,155,31.79,82.28203955665231,-38.95992149179801,1.05,0,182,0,1,0,0,1,1,100,182.83076198399067,80.35451378400903,1,1,0,1
323,99,350,71.78,120.29305191943422,-83.89479222008956,1.05,0,412,0,1,0,0,1,1,100,262.3181045684032,99.12038179486993,1,1,0,1
0 / END OF GENERATOR DATA, BEGIN BRANCH DATA
101,102,1,0.003,0.014,0.461,210.0,231.6,240.0,0,0,0,0,1,1,0,1,1
101,103,1,0.055,0.211,0.057,210.0,249.6,264.0,0,0,0,0,1,1,0,1,1
101,105,1,0.022,0.085,0.023,210.0,249.6,264.0,0,0,0,0,1,1,0,1,1
102,104,1,0.033,0.127,0.034,210.0,249.6,264.0,0,0,0,0,1,1,0,1,1
102,106,1,0.05,0.192,0.052,210.0,249.6,264.0,0,0,0,0,1,1,0,1,1
103,109,1,0.031,0.119,0.032,210.0,249.6,264.0,0,0,0,0,1,1,0,1,1
104,109,1,0.027,0.104,0.028,210.0,249.6,264.0,0,0,0,0,1,1,0,1,1
105,110,1,0.023,0.088,0.024,210.0,249.6,264.0,0,0,0,0,1,1,0,1,1
106,110,1,0.014,0.061,2.459,210.0,231.6,240.0,0,0,0,0,1,1,0,1,1
107,108,1,0.016,0.061,0.017,210.0,249.6,264.0,0,0,0,0,1,1,0,1,1
107,203,1,0.042,0.161,0.044,210.0,249.6,264.0,0,0,0,0,1,1,0,1,1
108,109,1,0.043,0.165,0.045,210.0,249.6,264.0,0,0,0,0,1,1,0,1,1
108,110,1,0.043,0.165,0.045,210.0,249.6,264.0,0,0,0,0,1,1,0,1,1
111,113,1,0.006,0.048,0.1,600.0,720.0,750.0,0,0,0,0,1,1,0,1,1
111,114,1,0.005,0.042,0.088,600.0,720.0,750.0,0,0,0,0,1,1,0,1,1
112,113,1,0.006,0.048,0.1,600.0,720.0,750.0,0,0,0,0,1,1,0,1,1
112,123,1,0.012,0.097,0.203,600.0,720.0,750.0,0,0,0,0,1,1,0,1,1
113,123,1,0.011,0.087,0.182,600.0,720.0,750.0,0,0,0,0,1,1,0,1,1
113,215,1,0.01,0.075,0.158,600.0,720.0,750.0,0,0,0,0,1,1,0,1,1
114,116,1,0.005,0.059,0.082,600.0,720.0,750.0,0,0,0,0,1,1,0,1,1
115,116,1,0.002,0.017,0.036,600.0,720.0,750.0,0,0,0,0,1,1,0,1,1
115,121,1,0.006,0.049,0.103,600.0,720.0,750.0,0,0,0,0,1,1,0,1,1
115,121,2,0.006,0.049,0.103,600.0,720.0,750.0,0,0,0,0,1,1,0,1,1
115,124,1,0.007,0.052,0.109,600.0,720.0,750.0,0,0,0,0,1,1,0,1,1
116,117,1,0.003,0.026,0.055,600.0,720.0,750.0,0,0,0,0,1,1,0,1,1
116,119,1,0.003,0.023,0.049,600.0,720.0,750.0,0,0,0,0,1,1,0,1,1
117,118,1,0.002,0.014,0.03,600.0,720.0,750.0,0,0,0,0,1,1,0,1,1
117,122,1,0.014,0.105,0.221,600.0,720.0,750.0,0,0,0,0,1,1,0,1,1
118,121,1,0.003,0.026,0.055,600.0,720.0,750.0,0,0,0,0,1,1,0,1,1
118,121,2,0.003,0.026,0.055,600.0,720.0,750.0,0,0,0,0,1,1,0,1,1
119,120,1,0.005,0.04,0.083,600.0,720.0,750.0,0,0,0,0,1,1,0,1,1
119,120,2,0.005,0.04,0.083,600.0,720.0,750.0,0,0,0,0,1,1,0,1,1
120,123,1,0.003,0.022,0.046,600.0,720.0,750.0,0,0,0,0,1,1,0,1,1
120,123,2,0.003,0.022,0.046,600.0,720.0,750.0,0,0,0,0,1,1,0,1,1
121,122,1,0.009,0.068,0.142,600.0,720.0,750.0,0,0,0,0,1,1,0,1,1
123,217,1,0.01,0.074,0.155,600.0,720.0,750.0,0,0,0,0,1,1,0,1,1
201,202,1,0.003,0.014,0.461,210.0,231.6,240.0,0,0,0,0,1,1,0,1,1
201,203,1,0.055,0.211,0.057,210.0,249.6,264.0,0,0,0,0,1,1,0,1,1
201,205,1,0.022,0.085,0.023,210.0,249.6,264.0,0,0,0,0,1,1,0,1,1
202,204,1,0.033,0.127,0.034,210.0,249.6,264.0,0,0,0,0,1,1,0,1,1
202,206,1,0.05,0.192,0.052,210.0,249.6,264.0,0,0,0,0,1,1,0,1,1
203,209,1,0.031,0.119,0.032,210.0,249.6,264.0,0,0,0,0,1,1,0,1,1
204,209,1,0.027,0.104,0.028,210.0,249.6,264.0,0,0,0,0,1,1,0,1,1
205,210,1,0.023,0.088,0.024,210.0,249.6,264.0,0,0,0,0,1,1,0,1,1
206,210,1,0.014,0.061,2.459,210.0,231.6,240.0,0,0,0,0,1,1,0,1,1
207,208,1,0.016,0.061,0.017,210.0,249.6,264.0,0,0,0,0,1,1,0,1,1
208,209,1,0.043,0.165,0.045,210.0,249.6,264.0,0,0,0,0,1,1,0,1,1
208,210,1,0.043,0.165,0.045,210.0,249.6,264.0,0,0,0,0,1,1,0,1,1
211,213,1,0.006,0.048,0.1,600.0,720.0,750.0,0,0,0,0,1,1,0,1,1
211,214,1,0.005,0.042,0.088,600.0,720.0,750.0,0,0,0,0,1,1,0,1,1
212,213,1,0.006,0.048,0.1,600.0,720.0,750.0,0,0,0,0,1,1,0,1,1
212,223,1,0.012,0.097,0.203,600.0,720.0,750.0,0,0,0,0,1,1,0,1,1
213,223,1,0.011,0.087,0.182,600.0,720.0,750.0,0,0,0,0,1,1,0,1,1
214,216,1,0.005,0.059,0.082,600.0,720.0,750.0,0,0,0,0,1,1,0,1,1
215,216,1,0.002,0.017,0.036,600.0,720.0,750.0,0,0,0,0,1,1,0,1,1
215,221,1,0.006,0.049,0.103,600.0,720.0,750.0,0,0,0,0,1,1,0,1,1
215,221,2,0.006,0.049,0.103,600.0,720.0,750.0,0,0,0,0,1,1,0,1,1
215,224,1,0.007,0.052,0.109,600.0,720.0,750.0,0,0,0,0,1,1,0,1,1
216,217,1,0.003,0.026,0.055,600.0,720.0,750.0,0,0,0,0,1,1,0,1,1
216,219,1,0.003,0.023,0.049,600.0,720.0,750.0,0,0,0,0,1,1,0,1,1
217,218,1,0.002,0.014,0.03,600.0,720.0,750.0,0,0,0,0,1,1,0,1,1
217,222,1,0.014,0.105,0.221,600.0,720.0,750.0,0,0,0,0,1,1,0,1,1
218,221,1,0.003,0.026,0.055,600.0,720.0,750.0,0,0,0,0,1,1,0,1,1
218,221,2,0.003,0.026,0.055,600.0,720.0,750.0,0,0,0,0,1,1,0,1,1
219,220,1,0.005,0.04,0.083,600.0,720.0,750.0,0,0,0,0,1,1,0,1,1
219,220,2,0.005,0.04,0.083,600.0,720.0,750.0,0,0,0,0,1,1,0,1,1
220,223,1,0.003,0.022,0.046,600.0,720.0,750.0,0,0,0,0,1,1,0,1,1
220,223,2,0.003,0.022,0.046,600.0,720.0,750.0,0,0,0,0,1,1,0,1,1
221,222,1,0.009,0.068,0.142,600.0,720.0,750.0,0,0,0,0,1,1,0,1,1
301,302,1,0.003,0.014,0.461,210.0,231.6,240.0,0,0,0,0,1,1,0,1,1
301,303,1,0.055,0.211,0.057,210.0,249.6,264.0,0,0,0,0,1,1,0,1,1
301,305,1,0.022,0.085,0.023,210.0,249.6,264.0,0,0,0,0,1,1,0,1,1
302,304,1,0.033,0.127,0.034,210.0,249.6,264.0,0,0,0,0,1,1,0,1,1
302,306,1,0.05,0.192,0.052,210.0,249.6,264.0,0,0,0,0,1,1,0,1,1
303,309,1,0.031,0.119,0.032,210.0,249.6,264.0,0,0,0,0,1,1,0,1,1
304,309,1,0.027,0.104,0.028,210.0,249.6,264.0,0,0,0,0,1,1,0,1,1
305,310,1,0.023,0.088,0.024,210.0,249.6,264.0,0,0,0,0,1,1,0,1,1
306,310,1,0.014,0.061,2.459,210.0,231.6,240.0,0,0,0,0,1,1,0,1,1
307,308,1,0.016,0.061,0.017,210.0,249.6,264.0,0,0,0,0,1,1,0,1,1
308,309,1,0.043,0.165,0.045,210.0,249.6,264.0,0,0,0,0,1,1,0,1,1
308,310,1,0.043,0.165,0.045,210.0,249.6,264.0,0,0,0,0,1,1,0,1,1
311,313,1,0.006,0.048,0.1,600.0,720.0,750.0,0,0,0,0,1,1,0,1,1
311,314,1,0.005,0.042,0.088,600.0,720.0,750.0,0,0,0,0,1,1,0,1,1
312,313,1,0.006,0.048,0.1,600.0,720.0,750.0,0,0,0,0,1,1,0,1,1
312,323,1,0.012,0.097,0.203,600.0,720.0,750.0,0,0,0,0,1,1,0,1,1
313,323,1,0.011,0.087,0.182,600.0,720.0,750.0,0,0,0,0,1,1,0,1,1
314,316,1,0.005,0.059,0.082,600.0,720.0,750.0,0,0,0,0,1,1,0,1,1
315,316,1,0.002,0.017,0.036,600.0,720.0,750.0,0,0,0,0,1,1,0,1,1
315,321,1,0.006,0.049,0.103,600.0,720.0,750.0,0,0,0,0,1,1,0,1,1
315,321,2,0.006,0.049,0.103,600.0,720.0,750.0,0,0,0,0,1,1,0,1,1
315,324,1,0.007,0.052,0.109,600.0,720.0,750.0,0,0,0,0,1,1,0,1,1
316,317,1,0.003,0.026,0.055,600.0,720.0,750.0,0,0,0,0,1,1,0,1,1
316,319,1,0.003,0.023,0.049,600.0,720.0,750.0,0,0,0,0,1,1,0,1,1
317,318,1,0.002,0.014,0.03,600.0,720.0,750.0,0,0,0,0,1,1,0,1,1
317,322,1,0.014,0.105,0.221,600.0,720.0,750.0,0,0,0,0,1,1,0,1,1
318,223,1,0.013,0.104,0.218,600.0,720.0,750.0,0,0,0,0,1,1,0,1,1
318,321,1,0.003,0.026,0.055,600.0,720.0,750.0,0,0,0,0,1,1,0,1,1
318,321,2,0.003,0.026,0.055,600.0,720.0,750.0,0,0,0,0,1,1,0,1,1
319,320,1,0.005,0.04,0.083,600.0,720.0,750.0,0,0,0,0,1,1,0,1,1
319,320,2,0.005,0.04,0.083,600.0,720.0,750.0,0,0,0,0,1,1,0,1,1
320,323,1,0.003,0.022,0.046,600.0,720.0,750.0,0,0,0,0,1,1,0,1,1
320,323,2,0.003,0.022,0.046,600.0,720.0,750.0,0,0,0,0,1,1,0,1,1
321,322,1,0.009,0.068,0.142,600.0,720.0,750.0,0,0,0,0,1,1,0,1,1
323,325,1,0,0.009,0,866.4,1071.6,1071.6,0,0,0,0,1,1,0,1,1
325,121,1,0.012,0.097,0.203,600.0,720.0,750.0,0,0,0,0,1,1,0,1,1
0 / END OF BRANCH DATA, BEGIN TRANSFORMER DATA
  103 ,  124 , 0,  1 , 1, 1, 1, 0, 0, 2, '            ',  1 , 1, 1
   0.002000 ,  0.084000 ,  100.000000
   1.015000 , 0,  0.000000 ,  400.000000 ,  510.000000 ,  600.000000 , 0, 0,  1.10 ,  0.90 ,  1.10 ,  0.90 , 33, 0, 0, 0
   1.000000, 0
  109 ,  111 , 0,  1 , 1, 1, 1, 0, 0, 2, '            ',  1 , 1, 1
   0.002000 ,  0.084000 ,  100.000000
   1.030000 , 0,  0.000000 ,  400.000000 ,  510.000000 ,  600.000000 , 0, 0,  1.10 ,  0.90 ,  1.10 ,  0.90 , 33, 0, 0, 0
   1.000000, 0
  109 ,  112 , 0,  1 , 1, 1, 1, 0, 0, 2, '            ',  1 , 1, 1
   0.002000 ,  0.084000 ,  100.000000
   1.030000 , 0,  0.000000 ,  400.000000 ,  510.000000 ,  600.000000 , 0, 0,  1.10 ,  0.90 ,  1.10 ,  0.90 , 33, 0, 0, 0
   1.000000, 0
  110 ,  111 , 0,  1 , 1, 1, 1, 0, 0, 2, '            ',  1 , 1, 1
   0.002000 ,  0.084000 ,  100.000000
   1.015000 , 0,  0.000000 ,  400.000000 ,  510.000000 ,  600.000000 , 0, 0,  1.10 ,  0.90 ,  1.10 ,  0.90 , 33, 0, 0, 0
   1.000000, 0
  110 ,  112 , 0,  1 , 1, 1, 1, 0, 0, 2, '            ',  1 , 1, 1
   0.002000 ,  0.084000 ,  100.000000
   1.015000 , 0,  0.000000 ,  400.000000 ,  510.000000 ,  600.000000 , 0, 0,  1.10 ,  0.90 ,  1.10 ,  0.90 , 33, 0, 0, 0
   1.000000, 0
  203 ,  224 , 0,  1 , 1, 1, 1, 0, 0, 2, '            ',  1 , 1, 1
   0.002000 ,  0.084000 ,  100.000000
   1.015000 , 0,  0.000000 ,  400.000000 ,  510.000000 ,  600.000000 , 0, 0,  1.10 ,  0.90 ,  1.10 ,  0.90 , 33, 0, 0, 0
   1.000000, 0
  209 ,  211 , 0,  1 , 1, 1, 1, 0, 0, 2, '            ',  1 , 1, 1
   0.002000 ,  0.084000 ,  100.000000
   1.030000 , 0,  0.000000 ,  400.000000 ,  510.000000 ,  600.000000 , 0, 0,  1.10 ,  0.90 ,  1.10 ,  0.90 , 33, 0, 0, 0
   1.000000, 0
  209 ,  212 , 0,  1 , 1, 1, 1, 0, 0, 2, '            ',  1 , 1, 1
   0.002000 ,  0.084000 ,  100.000000
   1.030000 , 0,  0.000000 ,  400.000000 ,  510.000000 ,  600.000000 , 0, 0,  1.10 ,  0.90 ,  1.10 ,  0.90 , 33, 0, 0, 0
   1.000000, 0
  210 ,  211 , 0,  1 , 1, 1, 1, 0, 0, 2, '            ',  1 , 1, 1
   0.002000 ,  0.084000 ,  100.000000
   1.015000 , 0,  0.000000 ,  400.000000 ,  510.000000 ,  600.000000 , 0, 0,  1.10 ,  0.90 ,  1.10 ,  0.90 , 33, 0, 0, 0
   1.000000, 0
  210 ,  212 , 0,  1 , 1, 1, 1, 0, 0, 2, '            ',  1 , 1, 1
   0.002000 ,  0.084000 ,  100.000000
   1.015000 , 0,  0.000000 ,  400.000000 ,  510.000000 ,  600.000000 , 0, 0,  1.10 ,  0.90 ,  1.10 ,  0.90 , 33, 0, 0, 0
   1.000000, 0
  303 ,  324 , 0,  1 , 1, 1, 1, 0, 0, 2, '            ',  1 , 1, 1
   0.002000 ,  0.084000 ,  100.000000
   1.015000 , 0,  0.000000 ,  400.000000 ,  510.000000 ,  600.000000 , 0, 0,  1.10 ,  0.90 ,  1.10 ,  0.90 , 33, 0, 0, 0
   1.000000, 0
  309 ,  311 , 0,  1 , 1, 1, 1, 0, 0, 2, '            ',  1 , 1, 1
   0.002000 ,  0.084000 ,  100.000000
   1.030000 , 0,  0.000000 ,  400.000000 ,  510.000000 ,  600.000000 , 0, 0,  1.10 ,  0.90 ,  1.10 ,  0.90 , 33, 0, 0, 0
   1.000000, 0
  309 ,  312 , 0,  1 , 1, 1, 1, 0, 0, 2, '            ',  1 , 1, 1
   0.002000 ,  0.084000 ,  100.000000
   1.030000 , 0,  0.000000 ,  400.000000 ,  510.000000 ,  600.000000 , 0, 0,  1.10 ,  0.90 ,  1.10 ,  0.90 , 33, 0, 0, 0
   1.000000, 0
  310 ,  311 , 0,  1 , 1, 1, 1, 0, 0, 2, '            ',  1 , 1, 1
   0.002000 ,  0.084000 ,  100.000000
   1.015000 , 0,  0.000000 ,  400.000000 ,  510.000000 ,  600.000000 , 0, 0,  1.10 ,  0.90 ,  1.10 ,  0.90 , 33, 0, 0, 0
   1.000000, 0
  310 ,  312 , 0,  1 , 1, 1, 1, 0, 0, 2, '            ',  1 , 1, 1
   0.002000 ,  0.084000 ,  100.000000
   1.015000 , 0,  0.000000 ,  400.000000 ,  510.000000 ,  600.000000 , 0, 0,  1.10 ,  0.90 ,  1.10 ,  0.90 , 33, 0, 0, 0
   1.000000, 0
0 / END OF TRANSFORMER DATA, BEGIN AREA DATA
0 / END OF AREA DATA, BEGIN TWO-TERMINAL DC DATA
0 / END OF TWO-TERMINAL DC DATA, BEGIN VSC DC LINE DATA
0 / END OF VSC DC LINE DATA, BEGIN SWITCHED SHUNT DATA
0 / END OF SWITCHED SHUNT DATA, BEGIN IMPEDANCE CORRECTION DATA
0 / END OF IMPEDANCE CORRECTION DATA, BEGIN MULTI-TERMINAL DC DATA
0 / END OF MULTI-TERMINAL DC DATA, BEGIN MULTI-SECTION LINE DATA
0 / END OF MULTI-SECTION LINE DATA, BEGIN ZONE DATA
0 / END OF ZONE DATA, BEGIN INTER-AREA TRANSFER DATA
0 / END OF INTER-AREA TRANSFER DATA, BEGIN OWNER DATA
0 / END OF OWNER DATA, BEGIN FACTS CONTROL DEVICE DATA
0 / END OF FACTS CONTROL DEVICE DATA
0 / END OF SWITCHED SHUNT DATA, BEGIN GNE DATA
0 / END OF GNE DATA, BEGIN INDUCTION MACHINE DATA
0 / END OF INDUCTION MACHINE DATA
Q 
